72
O2 Ti
Ti    0.000000   11.642898    3.517187
Ti    0.000000   13.041334    7.034373
Ti    3.785000   11.642898    3.517187
Ti    3.785000   13.041334    7.034373
Ti    7.570000   11.642898    3.517187
Ti    7.570000   13.041334    7.034373
Ti    1.892500    6.520667    3.517187
Ti    1.892500    7.919103    7.034373
Ti    5.677500    6.520667    3.517187
Ti    5.677500    7.919103    7.034373
Ti    9.462500    6.520667    3.517187
Ti    9.462500    7.919103    7.034373
Ti    1.892500    3.609943    2.637890
Ti    1.892500    5.008379    6.155077
Ti    5.677500    3.609943    2.637890
Ti    5.677500    5.008379    6.155077
Ti    9.462500    3.609943    2.637890
Ti    9.462500    5.008379    6.155077
Ti    0.000000    8.732174    2.637890
Ti    0.000000   10.130610    6.155077
Ti    3.785000    8.732174    2.637890
Ti    3.785000   10.130610    6.155077
Ti    7.570000    8.732174    2.637890
Ti    7.570000   10.130610    6.155077
 O    0.000000    3.257605    2.777979
 O    0.000000    4.656042    6.295166
 O    3.785000    3.257605    2.777979
 O    3.785000    4.656042    6.295166
 O    7.570000    3.257605    2.777979
 O    7.570000    4.656042    6.295166
 O    1.892500    8.379837    2.777980
 O    1.892500    9.778273    6.295166
 O    5.677500    8.379837    2.777980
 O    5.677500    9.778273    6.295166
 O    9.462500    8.379837    2.777980
 O    9.462500    9.778273    6.295166
 O    1.892500    5.469112    1.898683
 O    1.892500    6.867548    5.415869
 O    5.677500    5.469112    1.898683
 O    5.677500    6.867548    5.415869
 O    9.462500    5.469112    1.898683
 O    9.462500    6.867548    5.415869
 O    0.000000   10.591343    1.898683
 O    0.000000   11.989779    5.415869
 O    3.785000   10.591343    1.898683
 O    3.785000   11.989779    5.415869
 O    7.570000   10.591343    1.898683
 O    7.570000   11.989779    5.415869
 O    0.000000    6.873004    3.377097
 O    0.000000    8.271441    6.894284
 O    3.785000    6.873004    3.377097
 O    3.785000    8.271441    6.894284
 O    7.570000    6.873004    3.377097
 O    7.570000    8.271441    6.894284
 O    1.892500   11.995235    3.377097
 O    1.892500   13.393672    6.894284
 O    5.677500   11.995235    3.377097
 O    5.677500   13.393672    6.894284
 O    9.462500   11.995235    3.377097
 O    9.462500   13.393672    6.894284
 O    1.892500    4.661498    4.256394
 O    1.892500    6.059934    7.773580
 O    5.677500    4.661498    4.256394
 O    5.677500    6.059934    7.773580
 O    9.462500    4.661498    4.256394
 O    9.462500    6.059934    7.773580
 O    0.000000    9.783729    4.256394
 O    0.000000   11.182165    7.773580
 O    3.785000    9.783729    4.256394
 O    3.785000   11.182165    7.773580
 O    7.570000    9.783729    4.256394
 O    7.570000   11.182165    7.773580
